
 OpenBabel10122400033D

 40 44  0  0  0  0  0  0  0  0999 V2000
   15.8210   54.7800   12.3170 C   0  0  0  0  0  0  0  0  0  0  0  0
   16.8920   54.6440   11.3230 C   0  0  0  0  0  0  0  0  0  0  0  0
   17.8780   53.6220   11.5240 C   0  0  0  0  0  3  0  0  0  0  0  0
   17.8130   52.7520   12.6720 C   0  0  0  0  0  3  0  0  0  0  0  0
   16.7730   52.8790   13.6390 C   0  0  0  0  0  0  0  0  0  0  0  0
   15.7710   53.9160   13.4420 C   0  0  0  0  0  3  0  0  0  0  0  0
   17.0080   55.5430   10.0700 C   0  0  0  0  0  1  0  0  0  0  0  0
   14.8340   55.7580   12.1780 N   0  0  0  0  0  0  0  0  0  0  0  0
   13.9170   55.5030   11.7840 H   0  0  0  0  0  0  0  0  0  0  0  0
   14.2420   59.2920   12.7470 C   0  0  0  0  0  0  0  0  0  0  0  0
   15.4880   59.7380   13.3020 C   0  0  0  0  0  3  0  0  0  0  0  0
   16.5090   58.7740   13.4640 C   0  0  0  0  0  3  0  0  0  0  0  0
   16.2890   57.4640   13.0940 N   0  0  0  0  0  0  0  0  0  0  0  0
   15.0740   57.0680   12.5630 C   0  0  0  0  0  0  0  0  0  0  0  0
   14.0840   57.9680   12.4000 N   0  0  0  0  0  4  0  0  0  0  0  0
   11.8730   62.4040   12.7100 C   0  0  0  0  0  3  0  0  0  0  0  0
   13.0300   61.5780   12.9640 C   0  0  0  0  0  3  0  0  0  0  0  0
   13.0700   60.1930   12.5120 C   0  0  0  0  0  0  0  0  0  0  0  0
   11.9120   59.6710   11.8000 C   0  0  0  0  0  3  0  0  0  0  0  0
   10.8120   60.4910   11.5720 N   0  0  0  0  0  0  0  0  0  0  0  0
   10.7620   61.8250   12.0040 C   0  0  0  0  0  3  0  0  0  0  0  0
   16.7690   51.9670   14.7560 N   0  0  0  0  0  0  0  0  0  0  0  0
   15.7840   51.8020   15.7160 C   0  0  0  0  0  0  0  0  0  0  0  0
   14.8460   52.5660   15.8830 O   0  0  0  0  0  0  0  0  0  0  0  0
   17.5990   51.3670   14.8510 H   0  0  0  0  0  0  0  0  0  0  0  0
   15.8610   50.6220   16.6320 C   0  0  0  0  0  0  0  0  0  0  0  0
   17.1110   49.8810   16.8130 C   0  0  0  0  0  3  0  0  0  0  0  0
   17.1530   48.7380   17.6900 C   0  0  0  0  0  3  0  0  0  0  0  0
   15.9400   48.3300   18.3940 C   0  0  0  0  0  0  0  0  0  0  0  0
   14.7140   49.0870   18.2000 C   0  0  0  0  0  3  0  0  0  0  0  0
   14.6690   50.2070   17.3400 C   0  0  0  0  0  3  0  0  0  0  0  0
   15.8880   47.1100   19.3330 C   0  0  0  0  0  2  0  0  0  0  0  0
   17.1220   46.7910   20.1090 N   0  0  0  0  0  0  0  0  0  0  0  0
   17.3890   47.8580   21.1440 C   0  0  0  0  0  2  0  0  0  0  0  0
   18.6820   47.5560   21.9510 C   0  0  0  0  0  2  0  0  0  0  0  0
   18.6030   46.1850   22.6080 N   0  0  0  0  0  4  0  0  0  0  0  0
   19.8020   45.8500   23.3910 C   0  0  0  0  0  1  0  0  0  0  0  0
   18.3510   45.0900   21.5690 C   0  0  0  0  0  2  0  0  0  0  0  0
   17.0410   45.4170   20.7790 C   0  0  0  0  0  2  0  0  0  0  0  0
   17.8080   46.2320   23.2610 H   0  0  0  0  0  0  0  0  0  0  0  0
  1  6  1  0  0  0  0
  2  3  1  0  0  0  0
  2  1  2  0  0  0  0
  3  4  2  0  0  0  0
  4  5  1  0  0  0  0
  5 22  1  0  0  0  0
  6  5  2  0  0  0  0
  7  2  1  0  0  0  0
  8  1  1  0  0  0  0
  8 14  1  0  0  0  0
  9  8  1  0  0  0  0
 10 11  1  0  0  0  0
 11 12  2  0  0  0  0
 13 12  1  0  0  0  0
 14 13  2  0  0  0  0
 15 14  2  0  0  0  0
 15 10  2  0  0  0  0
 16 17  1  0  0  0  0
 18 10  1  0  0  0  0
 18 17  2  0  0  0  0
 19 18  1  0  0  0  0
 20 19  2  0  0  0  0
 20 21  1  0  0  0  0
 21 16  2  0  0  0  0
 22 25  1  0  0  0  0
 22 23  1  0  0  0  0
 23 24  2  0  0  0  0
 23 26  1  0  0  0  0
 26 27  2  0  0  0  0
 26 31  1  0  0  0  0
 27 28  1  0  0  0  0
 28 29  2  0  0  0  0
 29 32  1  0  0  0  0
 30 29  1  0  0  0  0
 31 30  2  0  0  0  0
 32 33  1  0  0  0  0
 33 39  1  0  0  0  0
 33 34  1  0  0  0  0
 34 35  1  0  0  0  0
 35 36  1  0  0  0  0
 36 40  1  0  0  0  0
 36 37  1  0  0  0  0
 38 36  1  0  0  0  0
 39 38  1  0  0  0  0
M  END
>  <minimizedAffinity>
-13.8842077

$$$$
